AUTORIZAÇÃO DE PROCEDIMENTOS AMBULATORIAISChave de Confirmação:49223
UNIDADE SOLICITANTENome:Cod. CNES:Op. Solicitante:Op. Autorizador:Op. Videofonista:COMPLEXO REGULADOR ESTADUAL6208398REGULADOR.NSFREGULADOR.NSF
UNIDADE EXECUTANTENome:Cod. CNES:HOSPITAL DE EMERGENCIA E TRAUMA SENADOR HUMBERTO LUCENA2593262Endereço:Número:Complemento:Bairro:DR ORESTES LISBOAS/N---PEDRO GONDIMTelefone:CEP:Municipio:83 218777558031-090JOAO PESSOA - PBProfissional Executante:Data e Horário de Atendimento:THALES FIGUEIREDO SEABRAQUI ● 06/03/2025 ● 12:00hrs
DADOS DO PACIENTECNS:Nome:Nome Social / Apelido:708406219422267RAIMUNDO TADEU CAVALCANTE DE ALBUQUERQUE---Nome da Mae:Sexo:Data Nascimento:Idade:MARIA DAS DORES DE LIMA ALBUQUERQUEMASCULINO08/03/196361 anosTipo Sanguíneo:Raça:---PARDANacionalidade:Naturalidade:BRASILEIRASANTA RITA - PBTipo de Logradouro:Nome do Logradouro:Número:Complemento:RUATELEMACO SANTIAGO126---Bairro:Município de Residencia:CEP:POPULARSANTA RITA - PB58304-500Telefone(s):(83) 98750-5912 ● (83) 99335-4370 (Exibir Lista Detalhada)
DADOS DA SOLICITAÇÃOCódigo da Solicitação:Data de Solicitação:Data de Aprovação:Vaga Solicitada:Vaga Consumida:58700012127/02/202527/02/20251ª Vez1ª VezCPF Profissional Solicitante:Profissional Solicitante:---REGPBDiagnóstico Inicial:CID:Classificação de Risco:OUTROS SINTOMAS E SINAIS GERAIS ESPECIFICADOSR688AZUL - ATENDIMENTO ELETIVOProcedimentos Autorizados:Cod. Unificado:Cod. Interno:CONSULTA EM ORTOPEDIA - JOELHO03010100720016009Data da Extração dos Dados: 27/02/2025 01:06:3827/02/2025 01:06Página 1 de 1
